3
/Users/rmw/Downloads/water.out	Energy:     -76.3718285
O         -0.00001       -0.00000       -0.06866 0.00000045 0.00000000 -0.06784568
H         -0.76183        0.00002        0.53038 0.41197839 -0.00000962 0.53838554
H          0.76181       -0.00002        0.53038 -0.41198602 0.00000963 0.53839073
3
/Users/rmw/Downloads/water.out	Energy:     -76.3718285
O         -0.00001       -0.00000       -0.06866 0.00000045 0.00000000 -0.06784568
H         -0.76183        0.00002        0.53038 0.41197839 -0.00000962 0.53838554
H          0.76181       -0.00002        0.53038 -0.41198602 0.00000963 0.53839073   